# original pdn
.title 20200622-104926
.option rshunt = 1.0e12
.subckt PcbBuckConverter VDD VSS
C1 VDD 12 2340uF
R1 12 13 0Ohm
L1 13 VSS 0nH
C2 VDD 22 0uF
R2 22 23 1000000000000.0Ohm
L2 23 VSS 0nH
Ls VDD 31 0.33uH
Rs 31 32 20mOhm
Vs 32 VSS 1.1
.ends PcbBuckConverter

.subckt PcbModelLumped VDD1 VSS1 VDD2 VSS2
Rs1 VDD1 11 1000mOhm
Ls1 11 VDD2 0nH
Rs2 VSS1 21 1000mOhm
Ls2 21 VSS2 0nH
Rp VDD2 VDD2M 0mOhm
Cp VDD2M VSS2 0uF
.ends PcbModelLumped

.subckt dut VDD VSS
R_X10Y10VDD_X20Y10VDD X10Y10VDD X15Y10VDD 25mOhm
L_X10Y10VDD_X20Y10VDD X15Y10VDD X20Y10VDD 2.91e-06nH
R_X10Y10VSS_X20Y10VSS X10Y10VSS X15Y10VSS 25mOhm
L_X10Y10VSS_X20Y10VSS X15Y10VSS X20Y10VSS 2.91e-06nH
R_X20Y10VDD_X30Y10VDD X20Y10VDD X25Y10VDD 25mOhm
L_X20Y10VDD_X30Y10VDD X25Y10VDD X30Y10VDD 2.91e-06nH
R_X20Y10VSS_X30Y10VSS X20Y10VSS X25Y10VSS 25mOhm
L_X20Y10VSS_X30Y10VSS X25Y10VSS X30Y10VSS 2.91e-06nH
R_X30Y10VDD_X40Y10VDD X30Y10VDD X35Y10VDD 25mOhm
L_X30Y10VDD_X40Y10VDD X35Y10VDD X40Y10VDD 2.91e-06nH
R_X30Y10VSS_X40Y10VSS X30Y10VSS X35Y10VSS 25mOhm
L_X30Y10VSS_X40Y10VSS X35Y10VSS X40Y10VSS 2.91e-06nH
R_X40Y10VDD_X50Y10VDD X40Y10VDD X45Y10VDD 25mOhm
L_X40Y10VDD_X50Y10VDD X45Y10VDD X50Y10VDD 2.91e-06nH
R_X40Y10VSS_X50Y10VSS X40Y10VSS X45Y10VSS 25mOhm
L_X40Y10VSS_X50Y10VSS X45Y10VSS X50Y10VSS 2.91e-06nH
R_X50Y10VDD_X60Y10VDD X50Y10VDD X55Y10VDD 25mOhm
L_X50Y10VDD_X60Y10VDD X55Y10VDD X60Y10VDD 2.91e-06nH
R_X50Y10VSS_X60Y10VSS X50Y10VSS X55Y10VSS 25mOhm
L_X50Y10VSS_X60Y10VSS X55Y10VSS X60Y10VSS 2.91e-06nH
R_X60Y10VDD_X70Y10VDD X60Y10VDD X65Y10VDD 25mOhm
L_X60Y10VDD_X70Y10VDD X65Y10VDD X70Y10VDD 2.91e-06nH
R_X60Y10VSS_X70Y10VSS X60Y10VSS X65Y10VSS 25mOhm
L_X60Y10VSS_X70Y10VSS X65Y10VSS X70Y10VSS 2.91e-06nH
R_X70Y10VDD_X80Y10VDD X70Y10VDD X75Y10VDD 25mOhm
L_X70Y10VDD_X80Y10VDD X75Y10VDD X80Y10VDD 2.91e-06nH
R_X70Y10VSS_X80Y10VSS X70Y10VSS X75Y10VSS 25mOhm
L_X70Y10VSS_X80Y10VSS X75Y10VSS X80Y10VSS 2.91e-06nH
R_X80Y10VDD_X90Y10VDD X80Y10VDD X85Y10VDD 25mOhm
L_X80Y10VDD_X90Y10VDD X85Y10VDD X90Y10VDD 2.91e-06nH
R_X80Y10VSS_X90Y10VSS X80Y10VSS X85Y10VSS 25mOhm
L_X80Y10VSS_X90Y10VSS X85Y10VSS X90Y10VSS 2.91e-06nH
R_X90Y10VDD_X100Y10VDD X90Y10VDD X95Y10VDD 25mOhm
L_X90Y10VDD_X100Y10VDD X95Y10VDD X100Y10VDD 2.91e-06nH
R_X90Y10VSS_X100Y10VSS X90Y10VSS X95Y10VSS 25mOhm
L_X90Y10VSS_X100Y10VSS X95Y10VSS X100Y10VSS 2.91e-06nH
R_X100Y10VDD_X110Y10VDD X100Y10VDD X105Y10VDD 25mOhm
L_X100Y10VDD_X110Y10VDD X105Y10VDD X110Y10VDD 2.91e-06nH
R_X100Y10VSS_X110Y10VSS X100Y10VSS X105Y10VSS 25mOhm
L_X100Y10VSS_X110Y10VSS X105Y10VSS X110Y10VSS 2.91e-06nH
R_X110Y10VDD_X120Y10VDD X110Y10VDD X115Y10VDD 25mOhm
L_X110Y10VDD_X120Y10VDD X115Y10VDD X120Y10VDD 2.91e-06nH
R_X110Y10VSS_X120Y10VSS X110Y10VSS X115Y10VSS 25mOhm
L_X110Y10VSS_X120Y10VSS X115Y10VSS X120Y10VSS 2.91e-06nH
R_X10Y20VDD_X20Y20VDD X10Y20VDD X15Y20VDD 25mOhm
L_X10Y20VDD_X20Y20VDD X15Y20VDD X20Y20VDD 2.91e-06nH
R_X10Y20VSS_X20Y20VSS X10Y20VSS X15Y20VSS 25mOhm
L_X10Y20VSS_X20Y20VSS X15Y20VSS X20Y20VSS 2.91e-06nH
R_X20Y20VDD_X30Y20VDD X20Y20VDD X25Y20VDD 25mOhm
L_X20Y20VDD_X30Y20VDD X25Y20VDD X30Y20VDD 2.91e-06nH
R_X20Y20VSS_X30Y20VSS X20Y20VSS X25Y20VSS 25mOhm
L_X20Y20VSS_X30Y20VSS X25Y20VSS X30Y20VSS 2.91e-06nH
R_X30Y20VDD_X40Y20VDD X30Y20VDD X35Y20VDD 25mOhm
L_X30Y20VDD_X40Y20VDD X35Y20VDD X40Y20VDD 2.91e-06nH
R_X30Y20VSS_X40Y20VSS X30Y20VSS X35Y20VSS 25mOhm
L_X30Y20VSS_X40Y20VSS X35Y20VSS X40Y20VSS 2.91e-06nH
R_X40Y20VDD_X50Y20VDD X40Y20VDD X45Y20VDD 25mOhm
L_X40Y20VDD_X50Y20VDD X45Y20VDD X50Y20VDD 2.91e-06nH
R_X40Y20VSS_X50Y20VSS X40Y20VSS X45Y20VSS 25mOhm
L_X40Y20VSS_X50Y20VSS X45Y20VSS X50Y20VSS 2.91e-06nH
R_X50Y20VDD_X60Y20VDD X50Y20VDD X55Y20VDD 25mOhm
L_X50Y20VDD_X60Y20VDD X55Y20VDD X60Y20VDD 2.91e-06nH
R_X50Y20VSS_X60Y20VSS X50Y20VSS X55Y20VSS 25mOhm
L_X50Y20VSS_X60Y20VSS X55Y20VSS X60Y20VSS 2.91e-06nH
R_X60Y20VDD_X70Y20VDD X60Y20VDD X65Y20VDD 25mOhm
L_X60Y20VDD_X70Y20VDD X65Y20VDD X70Y20VDD 2.91e-06nH
R_X60Y20VSS_X70Y20VSS X60Y20VSS X65Y20VSS 25mOhm
L_X60Y20VSS_X70Y20VSS X65Y20VSS X70Y20VSS 2.91e-06nH
R_X70Y20VDD_X80Y20VDD X70Y20VDD X75Y20VDD 25mOhm
L_X70Y20VDD_X80Y20VDD X75Y20VDD X80Y20VDD 2.91e-06nH
R_X70Y20VSS_X80Y20VSS X70Y20VSS X75Y20VSS 25mOhm
L_X70Y20VSS_X80Y20VSS X75Y20VSS X80Y20VSS 2.91e-06nH
R_X80Y20VDD_X90Y20VDD X80Y20VDD X85Y20VDD 25mOhm
L_X80Y20VDD_X90Y20VDD X85Y20VDD X90Y20VDD 2.91e-06nH
R_X80Y20VSS_X90Y20VSS X80Y20VSS X85Y20VSS 25mOhm
L_X80Y20VSS_X90Y20VSS X85Y20VSS X90Y20VSS 2.91e-06nH
R_X90Y20VDD_X100Y20VDD X90Y20VDD X95Y20VDD 25mOhm
L_X90Y20VDD_X100Y20VDD X95Y20VDD X100Y20VDD 2.91e-06nH
R_X90Y20VSS_X100Y20VSS X90Y20VSS X95Y20VSS 25mOhm
L_X90Y20VSS_X100Y20VSS X95Y20VSS X100Y20VSS 2.91e-06nH
R_X100Y20VDD_X110Y20VDD X100Y20VDD X105Y20VDD 25mOhm
L_X100Y20VDD_X110Y20VDD X105Y20VDD X110Y20VDD 2.91e-06nH
R_X100Y20VSS_X110Y20VSS X100Y20VSS X105Y20VSS 25mOhm
L_X100Y20VSS_X110Y20VSS X105Y20VSS X110Y20VSS 2.91e-06nH
R_X110Y20VDD_X120Y20VDD X110Y20VDD X115Y20VDD 25mOhm
L_X110Y20VDD_X120Y20VDD X115Y20VDD X120Y20VDD 2.91e-06nH
R_X110Y20VSS_X120Y20VSS X110Y20VSS X115Y20VSS 25mOhm
L_X110Y20VSS_X120Y20VSS X115Y20VSS X120Y20VSS 2.91e-06nH
R_X10Y30VDD_X20Y30VDD X10Y30VDD X15Y30VDD 25mOhm
L_X10Y30VDD_X20Y30VDD X15Y30VDD X20Y30VDD 2.91e-06nH
R_X10Y30VSS_X20Y30VSS X10Y30VSS X15Y30VSS 25mOhm
L_X10Y30VSS_X20Y30VSS X15Y30VSS X20Y30VSS 2.91e-06nH
R_X20Y30VDD_X30Y30VDD X20Y30VDD X25Y30VDD 25mOhm
L_X20Y30VDD_X30Y30VDD X25Y30VDD X30Y30VDD 2.91e-06nH
R_X20Y30VSS_X30Y30VSS X20Y30VSS X25Y30VSS 25mOhm
L_X20Y30VSS_X30Y30VSS X25Y30VSS X30Y30VSS 2.91e-06nH
R_X30Y30VDD_X40Y30VDD X30Y30VDD X35Y30VDD 25mOhm
L_X30Y30VDD_X40Y30VDD X35Y30VDD X40Y30VDD 2.91e-06nH
R_X30Y30VSS_X40Y30VSS X30Y30VSS X35Y30VSS 25mOhm
L_X30Y30VSS_X40Y30VSS X35Y30VSS X40Y30VSS 2.91e-06nH
R_X40Y30VDD_X50Y30VDD X40Y30VDD X45Y30VDD 25mOhm
L_X40Y30VDD_X50Y30VDD X45Y30VDD X50Y30VDD 2.91e-06nH
R_X40Y30VSS_X50Y30VSS X40Y30VSS X45Y30VSS 25mOhm
L_X40Y30VSS_X50Y30VSS X45Y30VSS X50Y30VSS 2.91e-06nH
R_X50Y30VDD_X60Y30VDD X50Y30VDD X55Y30VDD 25mOhm
L_X50Y30VDD_X60Y30VDD X55Y30VDD X60Y30VDD 2.91e-06nH
R_X50Y30VSS_X60Y30VSS X50Y30VSS X55Y30VSS 25mOhm
L_X50Y30VSS_X60Y30VSS X55Y30VSS X60Y30VSS 2.91e-06nH
R_X60Y30VDD_X70Y30VDD X60Y30VDD X65Y30VDD 25mOhm
L_X60Y30VDD_X70Y30VDD X65Y30VDD X70Y30VDD 2.91e-06nH
R_X60Y30VSS_X70Y30VSS X60Y30VSS X65Y30VSS 25mOhm
L_X60Y30VSS_X70Y30VSS X65Y30VSS X70Y30VSS 2.91e-06nH
R_X70Y30VDD_X80Y30VDD X70Y30VDD X75Y30VDD 25mOhm
L_X70Y30VDD_X80Y30VDD X75Y30VDD X80Y30VDD 2.91e-06nH
R_X70Y30VSS_X80Y30VSS X70Y30VSS X75Y30VSS 25mOhm
L_X70Y30VSS_X80Y30VSS X75Y30VSS X80Y30VSS 2.91e-06nH
R_X80Y30VDD_X90Y30VDD X80Y30VDD X85Y30VDD 25mOhm
L_X80Y30VDD_X90Y30VDD X85Y30VDD X90Y30VDD 2.91e-06nH
R_X80Y30VSS_X90Y30VSS X80Y30VSS X85Y30VSS 25mOhm
L_X80Y30VSS_X90Y30VSS X85Y30VSS X90Y30VSS 2.91e-06nH
R_X90Y30VDD_X100Y30VDD X90Y30VDD X95Y30VDD 25mOhm
L_X90Y30VDD_X100Y30VDD X95Y30VDD X100Y30VDD 2.91e-06nH
R_X90Y30VSS_X100Y30VSS X90Y30VSS X95Y30VSS 25mOhm
L_X90Y30VSS_X100Y30VSS X95Y30VSS X100Y30VSS 2.91e-06nH
R_X100Y30VDD_X110Y30VDD X100Y30VDD X105Y30VDD 25mOhm
L_X100Y30VDD_X110Y30VDD X105Y30VDD X110Y30VDD 2.91e-06nH
R_X100Y30VSS_X110Y30VSS X100Y30VSS X105Y30VSS 25mOhm
L_X100Y30VSS_X110Y30VSS X105Y30VSS X110Y30VSS 2.91e-06nH
R_X110Y30VDD_X120Y30VDD X110Y30VDD X115Y30VDD 25mOhm
L_X110Y30VDD_X120Y30VDD X115Y30VDD X120Y30VDD 2.91e-06nH
R_X110Y30VSS_X120Y30VSS X110Y30VSS X115Y30VSS 25mOhm
L_X110Y30VSS_X120Y30VSS X115Y30VSS X120Y30VSS 2.91e-06nH
R_X10Y40VDD_X20Y40VDD X10Y40VDD X15Y40VDD 25mOhm
L_X10Y40VDD_X20Y40VDD X15Y40VDD X20Y40VDD 2.91e-06nH
R_X10Y40VSS_X20Y40VSS X10Y40VSS X15Y40VSS 25mOhm
L_X10Y40VSS_X20Y40VSS X15Y40VSS X20Y40VSS 2.91e-06nH
R_X20Y40VDD_X30Y40VDD X20Y40VDD X25Y40VDD 25mOhm
L_X20Y40VDD_X30Y40VDD X25Y40VDD X30Y40VDD 2.91e-06nH
R_X20Y40VSS_X30Y40VSS X20Y40VSS X25Y40VSS 25mOhm
L_X20Y40VSS_X30Y40VSS X25Y40VSS X30Y40VSS 2.91e-06nH
R_X30Y40VDD_X40Y40VDD X30Y40VDD X35Y40VDD 25mOhm
L_X30Y40VDD_X40Y40VDD X35Y40VDD X40Y40VDD 2.91e-06nH
R_X30Y40VSS_X40Y40VSS X30Y40VSS X35Y40VSS 25mOhm
L_X30Y40VSS_X40Y40VSS X35Y40VSS X40Y40VSS 2.91e-06nH
R_X40Y40VDD_X50Y40VDD X40Y40VDD X45Y40VDD 25mOhm
L_X40Y40VDD_X50Y40VDD X45Y40VDD X50Y40VDD 2.91e-06nH
R_X40Y40VSS_X50Y40VSS X40Y40VSS X45Y40VSS 25mOhm
L_X40Y40VSS_X50Y40VSS X45Y40VSS X50Y40VSS 2.91e-06nH
R_X50Y40VDD_X60Y40VDD X50Y40VDD X55Y40VDD 25mOhm
L_X50Y40VDD_X60Y40VDD X55Y40VDD X60Y40VDD 2.91e-06nH
R_X50Y40VSS_X60Y40VSS X50Y40VSS X55Y40VSS 25mOhm
L_X50Y40VSS_X60Y40VSS X55Y40VSS X60Y40VSS 2.91e-06nH
R_X60Y40VDD_X70Y40VDD X60Y40VDD X65Y40VDD 25mOhm
L_X60Y40VDD_X70Y40VDD X65Y40VDD X70Y40VDD 2.91e-06nH
R_X60Y40VSS_X70Y40VSS X60Y40VSS X65Y40VSS 25mOhm
L_X60Y40VSS_X70Y40VSS X65Y40VSS X70Y40VSS 2.91e-06nH
R_X70Y40VDD_X80Y40VDD X70Y40VDD X75Y40VDD 25mOhm
L_X70Y40VDD_X80Y40VDD X75Y40VDD X80Y40VDD 2.91e-06nH
R_X70Y40VSS_X80Y40VSS X70Y40VSS X75Y40VSS 25mOhm
L_X70Y40VSS_X80Y40VSS X75Y40VSS X80Y40VSS 2.91e-06nH
R_X80Y40VDD_X90Y40VDD X80Y40VDD X85Y40VDD 25mOhm
L_X80Y40VDD_X90Y40VDD X85Y40VDD X90Y40VDD 2.91e-06nH
R_X80Y40VSS_X90Y40VSS X80Y40VSS X85Y40VSS 25mOhm
L_X80Y40VSS_X90Y40VSS X85Y40VSS X90Y40VSS 2.91e-06nH
R_X90Y40VDD_X100Y40VDD X90Y40VDD X95Y40VDD 25mOhm
L_X90Y40VDD_X100Y40VDD X95Y40VDD X100Y40VDD 2.91e-06nH
R_X90Y40VSS_X100Y40VSS X90Y40VSS X95Y40VSS 25mOhm
L_X90Y40VSS_X100Y40VSS X95Y40VSS X100Y40VSS 2.91e-06nH
R_X100Y40VDD_X110Y40VDD X100Y40VDD X105Y40VDD 25mOhm
L_X100Y40VDD_X110Y40VDD X105Y40VDD X110Y40VDD 2.91e-06nH
R_X100Y40VSS_X110Y40VSS X100Y40VSS X105Y40VSS 25mOhm
L_X100Y40VSS_X110Y40VSS X105Y40VSS X110Y40VSS 2.91e-06nH
R_X110Y40VDD_X120Y40VDD X110Y40VDD X115Y40VDD 25mOhm
L_X110Y40VDD_X120Y40VDD X115Y40VDD X120Y40VDD 2.91e-06nH
R_X110Y40VSS_X120Y40VSS X110Y40VSS X115Y40VSS 25mOhm
L_X110Y40VSS_X120Y40VSS X115Y40VSS X120Y40VSS 2.91e-06nH
R_X10Y50VDD_X20Y50VDD X10Y50VDD X15Y50VDD 25mOhm
L_X10Y50VDD_X20Y50VDD X15Y50VDD X20Y50VDD 2.91e-06nH
R_X10Y50VSS_X20Y50VSS X10Y50VSS X15Y50VSS 25mOhm
L_X10Y50VSS_X20Y50VSS X15Y50VSS X20Y50VSS 2.91e-06nH
R_X20Y50VDD_X30Y50VDD X20Y50VDD X25Y50VDD 25mOhm
L_X20Y50VDD_X30Y50VDD X25Y50VDD X30Y50VDD 2.91e-06nH
R_X20Y50VSS_X30Y50VSS X20Y50VSS X25Y50VSS 25mOhm
L_X20Y50VSS_X30Y50VSS X25Y50VSS X30Y50VSS 2.91e-06nH
R_X30Y50VDD_X40Y50VDD X30Y50VDD X35Y50VDD 25mOhm
L_X30Y50VDD_X40Y50VDD X35Y50VDD X40Y50VDD 2.91e-06nH
R_X30Y50VSS_X40Y50VSS X30Y50VSS X35Y50VSS 25mOhm
L_X30Y50VSS_X40Y50VSS X35Y50VSS X40Y50VSS 2.91e-06nH
R_X40Y50VDD_X50Y50VDD X40Y50VDD X45Y50VDD 25mOhm
L_X40Y50VDD_X50Y50VDD X45Y50VDD X50Y50VDD 2.91e-06nH
R_X40Y50VSS_X50Y50VSS X40Y50VSS X45Y50VSS 25mOhm
L_X40Y50VSS_X50Y50VSS X45Y50VSS X50Y50VSS 2.91e-06nH
R_X50Y50VDD_X60Y50VDD X50Y50VDD X55Y50VDD 25mOhm
L_X50Y50VDD_X60Y50VDD X55Y50VDD X60Y50VDD 2.91e-06nH
R_X50Y50VSS_X60Y50VSS X50Y50VSS X55Y50VSS 25mOhm
L_X50Y50VSS_X60Y50VSS X55Y50VSS X60Y50VSS 2.91e-06nH
R_X60Y50VDD_X70Y50VDD X60Y50VDD X65Y50VDD 25mOhm
L_X60Y50VDD_X70Y50VDD X65Y50VDD X70Y50VDD 2.91e-06nH
R_X60Y50VSS_X70Y50VSS X60Y50VSS X65Y50VSS 25mOhm
L_X60Y50VSS_X70Y50VSS X65Y50VSS X70Y50VSS 2.91e-06nH
R_X70Y50VDD_X80Y50VDD X70Y50VDD X75Y50VDD 25mOhm
L_X70Y50VDD_X80Y50VDD X75Y50VDD X80Y50VDD 2.91e-06nH
R_X70Y50VSS_X80Y50VSS X70Y50VSS X75Y50VSS 25mOhm
L_X70Y50VSS_X80Y50VSS X75Y50VSS X80Y50VSS 2.91e-06nH
R_X80Y50VDD_X90Y50VDD X80Y50VDD X85Y50VDD 25mOhm
L_X80Y50VDD_X90Y50VDD X85Y50VDD X90Y50VDD 2.91e-06nH
R_X80Y50VSS_X90Y50VSS X80Y50VSS X85Y50VSS 25mOhm
L_X80Y50VSS_X90Y50VSS X85Y50VSS X90Y50VSS 2.91e-06nH
R_X90Y50VDD_X100Y50VDD X90Y50VDD X95Y50VDD 25mOhm
L_X90Y50VDD_X100Y50VDD X95Y50VDD X100Y50VDD 2.91e-06nH
R_X90Y50VSS_X100Y50VSS X90Y50VSS X95Y50VSS 25mOhm
L_X90Y50VSS_X100Y50VSS X95Y50VSS X100Y50VSS 2.91e-06nH
R_X100Y50VDD_X110Y50VDD X100Y50VDD X105Y50VDD 25mOhm
L_X100Y50VDD_X110Y50VDD X105Y50VDD X110Y50VDD 2.91e-06nH
R_X100Y50VSS_X110Y50VSS X100Y50VSS X105Y50VSS 25mOhm
L_X100Y50VSS_X110Y50VSS X105Y50VSS X110Y50VSS 2.91e-06nH
R_X110Y50VDD_X120Y50VDD X110Y50VDD X115Y50VDD 25mOhm
L_X110Y50VDD_X120Y50VDD X115Y50VDD X120Y50VDD 2.91e-06nH
R_X110Y50VSS_X120Y50VSS X110Y50VSS X115Y50VSS 25mOhm
L_X110Y50VSS_X120Y50VSS X115Y50VSS X120Y50VSS 2.91e-06nH
R_X10Y60VDD_X20Y60VDD X10Y60VDD X15Y60VDD 25mOhm
L_X10Y60VDD_X20Y60VDD X15Y60VDD X20Y60VDD 2.91e-06nH
R_X10Y60VSS_X20Y60VSS X10Y60VSS X15Y60VSS 25mOhm
L_X10Y60VSS_X20Y60VSS X15Y60VSS X20Y60VSS 2.91e-06nH
R_X20Y60VDD_X30Y60VDD X20Y60VDD X25Y60VDD 25mOhm
L_X20Y60VDD_X30Y60VDD X25Y60VDD X30Y60VDD 2.91e-06nH
R_X20Y60VSS_X30Y60VSS X20Y60VSS X25Y60VSS 25mOhm
L_X20Y60VSS_X30Y60VSS X25Y60VSS X30Y60VSS 2.91e-06nH
R_X30Y60VDD_X40Y60VDD X30Y60VDD X35Y60VDD 25mOhm
L_X30Y60VDD_X40Y60VDD X35Y60VDD X40Y60VDD 2.91e-06nH
R_X30Y60VSS_X40Y60VSS X30Y60VSS X35Y60VSS 25mOhm
L_X30Y60VSS_X40Y60VSS X35Y60VSS X40Y60VSS 2.91e-06nH
R_X40Y60VDD_X50Y60VDD X40Y60VDD X45Y60VDD 25mOhm
L_X40Y60VDD_X50Y60VDD X45Y60VDD X50Y60VDD 2.91e-06nH
R_X40Y60VSS_X50Y60VSS X40Y60VSS X45Y60VSS 25mOhm
L_X40Y60VSS_X50Y60VSS X45Y60VSS X50Y60VSS 2.91e-06nH
R_X50Y60VDD_X60Y60VDD X50Y60VDD X55Y60VDD 25mOhm
L_X50Y60VDD_X60Y60VDD X55Y60VDD X60Y60VDD 2.91e-06nH
R_X50Y60VSS_X60Y60VSS X50Y60VSS X55Y60VSS 25mOhm
L_X50Y60VSS_X60Y60VSS X55Y60VSS X60Y60VSS 2.91e-06nH
R_X60Y60VDD_X70Y60VDD X60Y60VDD X65Y60VDD 25mOhm
L_X60Y60VDD_X70Y60VDD X65Y60VDD X70Y60VDD 2.91e-06nH
R_X60Y60VSS_X70Y60VSS X60Y60VSS X65Y60VSS 25mOhm
L_X60Y60VSS_X70Y60VSS X65Y60VSS X70Y60VSS 2.91e-06nH
R_X70Y60VDD_X80Y60VDD X70Y60VDD X75Y60VDD 25mOhm
L_X70Y60VDD_X80Y60VDD X75Y60VDD X80Y60VDD 2.91e-06nH
R_X70Y60VSS_X80Y60VSS X70Y60VSS X75Y60VSS 25mOhm
L_X70Y60VSS_X80Y60VSS X75Y60VSS X80Y60VSS 2.91e-06nH
R_X80Y60VDD_X90Y60VDD X80Y60VDD X85Y60VDD 25mOhm
L_X80Y60VDD_X90Y60VDD X85Y60VDD X90Y60VDD 2.91e-06nH
R_X80Y60VSS_X90Y60VSS X80Y60VSS X85Y60VSS 25mOhm
L_X80Y60VSS_X90Y60VSS X85Y60VSS X90Y60VSS 2.91e-06nH
R_X90Y60VDD_X100Y60VDD X90Y60VDD X95Y60VDD 25mOhm
L_X90Y60VDD_X100Y60VDD X95Y60VDD X100Y60VDD 2.91e-06nH
R_X90Y60VSS_X100Y60VSS X90Y60VSS X95Y60VSS 25mOhm
L_X90Y60VSS_X100Y60VSS X95Y60VSS X100Y60VSS 2.91e-06nH
R_X100Y60VDD_X110Y60VDD X100Y60VDD X105Y60VDD 25mOhm
L_X100Y60VDD_X110Y60VDD X105Y60VDD X110Y60VDD 2.91e-06nH
R_X100Y60VSS_X110Y60VSS X100Y60VSS X105Y60VSS 25mOhm
L_X100Y60VSS_X110Y60VSS X105Y60VSS X110Y60VSS 2.91e-06nH
R_X110Y60VDD_X120Y60VDD X110Y60VDD X115Y60VDD 25mOhm
L_X110Y60VDD_X120Y60VDD X115Y60VDD X120Y60VDD 2.91e-06nH
R_X110Y60VSS_X120Y60VSS X110Y60VSS X115Y60VSS 25mOhm
L_X110Y60VSS_X120Y60VSS X115Y60VSS X120Y60VSS 2.91e-06nH
R_X10Y70VDD_X20Y70VDD X10Y70VDD X15Y70VDD 25mOhm
L_X10Y70VDD_X20Y70VDD X15Y70VDD X20Y70VDD 2.91e-06nH
R_X10Y70VSS_X20Y70VSS X10Y70VSS X15Y70VSS 25mOhm
L_X10Y70VSS_X20Y70VSS X15Y70VSS X20Y70VSS 2.91e-06nH
R_X20Y70VDD_X30Y70VDD X20Y70VDD X25Y70VDD 25mOhm
L_X20Y70VDD_X30Y70VDD X25Y70VDD X30Y70VDD 2.91e-06nH
R_X20Y70VSS_X30Y70VSS X20Y70VSS X25Y70VSS 25mOhm
L_X20Y70VSS_X30Y70VSS X25Y70VSS X30Y70VSS 2.91e-06nH
R_X30Y70VDD_X40Y70VDD X30Y70VDD X35Y70VDD 25mOhm
L_X30Y70VDD_X40Y70VDD X35Y70VDD X40Y70VDD 2.91e-06nH
R_X30Y70VSS_X40Y70VSS X30Y70VSS X35Y70VSS 25mOhm
L_X30Y70VSS_X40Y70VSS X35Y70VSS X40Y70VSS 2.91e-06nH
R_X40Y70VDD_X50Y70VDD X40Y70VDD X45Y70VDD 25mOhm
L_X40Y70VDD_X50Y70VDD X45Y70VDD X50Y70VDD 2.91e-06nH
R_X40Y70VSS_X50Y70VSS X40Y70VSS X45Y70VSS 25mOhm
L_X40Y70VSS_X50Y70VSS X45Y70VSS X50Y70VSS 2.91e-06nH
R_X50Y70VDD_X60Y70VDD X50Y70VDD X55Y70VDD 25mOhm
L_X50Y70VDD_X60Y70VDD X55Y70VDD X60Y70VDD 2.91e-06nH
R_X50Y70VSS_X60Y70VSS X50Y70VSS X55Y70VSS 25mOhm
L_X50Y70VSS_X60Y70VSS X55Y70VSS X60Y70VSS 2.91e-06nH
R_X60Y70VDD_X70Y70VDD X60Y70VDD X65Y70VDD 25mOhm
L_X60Y70VDD_X70Y70VDD X65Y70VDD X70Y70VDD 2.91e-06nH
R_X60Y70VSS_X70Y70VSS X60Y70VSS X65Y70VSS 25mOhm
L_X60Y70VSS_X70Y70VSS X65Y70VSS X70Y70VSS 2.91e-06nH
R_X70Y70VDD_X80Y70VDD X70Y70VDD X75Y70VDD 25mOhm
L_X70Y70VDD_X80Y70VDD X75Y70VDD X80Y70VDD 2.91e-06nH
R_X70Y70VSS_X80Y70VSS X70Y70VSS X75Y70VSS 25mOhm
L_X70Y70VSS_X80Y70VSS X75Y70VSS X80Y70VSS 2.91e-06nH
R_X80Y70VDD_X90Y70VDD X80Y70VDD X85Y70VDD 25mOhm
L_X80Y70VDD_X90Y70VDD X85Y70VDD X90Y70VDD 2.91e-06nH
R_X80Y70VSS_X90Y70VSS X80Y70VSS X85Y70VSS 25mOhm
L_X80Y70VSS_X90Y70VSS X85Y70VSS X90Y70VSS 2.91e-06nH
R_X90Y70VDD_X100Y70VDD X90Y70VDD X95Y70VDD 25mOhm
L_X90Y70VDD_X100Y70VDD X95Y70VDD X100Y70VDD 2.91e-06nH
R_X90Y70VSS_X100Y70VSS X90Y70VSS X95Y70VSS 25mOhm
L_X90Y70VSS_X100Y70VSS X95Y70VSS X100Y70VSS 2.91e-06nH
R_X100Y70VDD_X110Y70VDD X100Y70VDD X105Y70VDD 25mOhm
L_X100Y70VDD_X110Y70VDD X105Y70VDD X110Y70VDD 2.91e-06nH
R_X100Y70VSS_X110Y70VSS X100Y70VSS X105Y70VSS 25mOhm
L_X100Y70VSS_X110Y70VSS X105Y70VSS X110Y70VSS 2.91e-06nH
R_X110Y70VDD_X120Y70VDD X110Y70VDD X115Y70VDD 25mOhm
L_X110Y70VDD_X120Y70VDD X115Y70VDD X120Y70VDD 2.91e-06nH
R_X110Y70VSS_X120Y70VSS X110Y70VSS X115Y70VSS 25mOhm
L_X110Y70VSS_X120Y70VSS X115Y70VSS X120Y70VSS 2.91e-06nH
R_X10Y80VDD_X20Y80VDD X10Y80VDD X15Y80VDD 25mOhm
L_X10Y80VDD_X20Y80VDD X15Y80VDD X20Y80VDD 2.91e-06nH
R_X10Y80VSS_X20Y80VSS X10Y80VSS X15Y80VSS 25mOhm
L_X10Y80VSS_X20Y80VSS X15Y80VSS X20Y80VSS 2.91e-06nH
R_X20Y80VDD_X30Y80VDD X20Y80VDD X25Y80VDD 25mOhm
L_X20Y80VDD_X30Y80VDD X25Y80VDD X30Y80VDD 2.91e-06nH
R_X20Y80VSS_X30Y80VSS X20Y80VSS X25Y80VSS 25mOhm
L_X20Y80VSS_X30Y80VSS X25Y80VSS X30Y80VSS 2.91e-06nH
R_X30Y80VDD_X40Y80VDD X30Y80VDD X35Y80VDD 25mOhm
L_X30Y80VDD_X40Y80VDD X35Y80VDD X40Y80VDD 2.91e-06nH
R_X30Y80VSS_X40Y80VSS X30Y80VSS X35Y80VSS 25mOhm
L_X30Y80VSS_X40Y80VSS X35Y80VSS X40Y80VSS 2.91e-06nH
R_X40Y80VDD_X50Y80VDD X40Y80VDD X45Y80VDD 25mOhm
L_X40Y80VDD_X50Y80VDD X45Y80VDD X50Y80VDD 2.91e-06nH
R_X40Y80VSS_X50Y80VSS X40Y80VSS X45Y80VSS 25mOhm
L_X40Y80VSS_X50Y80VSS X45Y80VSS X50Y80VSS 2.91e-06nH
R_X50Y80VDD_X60Y80VDD X50Y80VDD X55Y80VDD 25mOhm
L_X50Y80VDD_X60Y80VDD X55Y80VDD X60Y80VDD 2.91e-06nH
R_X50Y80VSS_X60Y80VSS X50Y80VSS X55Y80VSS 25mOhm
L_X50Y80VSS_X60Y80VSS X55Y80VSS X60Y80VSS 2.91e-06nH
R_X60Y80VDD_X70Y80VDD X60Y80VDD X65Y80VDD 25mOhm
L_X60Y80VDD_X70Y80VDD X65Y80VDD X70Y80VDD 2.91e-06nH
R_X60Y80VSS_X70Y80VSS X60Y80VSS X65Y80VSS 25mOhm
L_X60Y80VSS_X70Y80VSS X65Y80VSS X70Y80VSS 2.91e-06nH
R_X70Y80VDD_X80Y80VDD X70Y80VDD X75Y80VDD 25mOhm
L_X70Y80VDD_X80Y80VDD X75Y80VDD X80Y80VDD 2.91e-06nH
R_X70Y80VSS_X80Y80VSS X70Y80VSS X75Y80VSS 25mOhm
L_X70Y80VSS_X80Y80VSS X75Y80VSS X80Y80VSS 2.91e-06nH
R_X80Y80VDD_X90Y80VDD X80Y80VDD X85Y80VDD 25mOhm
L_X80Y80VDD_X90Y80VDD X85Y80VDD X90Y80VDD 2.91e-06nH
R_X80Y80VSS_X90Y80VSS X80Y80VSS X85Y80VSS 25mOhm
L_X80Y80VSS_X90Y80VSS X85Y80VSS X90Y80VSS 2.91e-06nH
R_X90Y80VDD_X100Y80VDD X90Y80VDD X95Y80VDD 25mOhm
L_X90Y80VDD_X100Y80VDD X95Y80VDD X100Y80VDD 2.91e-06nH
R_X90Y80VSS_X100Y80VSS X90Y80VSS X95Y80VSS 25mOhm
L_X90Y80VSS_X100Y80VSS X95Y80VSS X100Y80VSS 2.91e-06nH
R_X100Y80VDD_X110Y80VDD X100Y80VDD X105Y80VDD 25mOhm
L_X100Y80VDD_X110Y80VDD X105Y80VDD X110Y80VDD 2.91e-06nH
R_X100Y80VSS_X110Y80VSS X100Y80VSS X105Y80VSS 25mOhm
L_X100Y80VSS_X110Y80VSS X105Y80VSS X110Y80VSS 2.91e-06nH
R_X110Y80VDD_X120Y80VDD X110Y80VDD X115Y80VDD 25mOhm
L_X110Y80VDD_X120Y80VDD X115Y80VDD X120Y80VDD 2.91e-06nH
R_X110Y80VSS_X120Y80VSS X110Y80VSS X115Y80VSS 25mOhm
L_X110Y80VSS_X120Y80VSS X115Y80VSS X120Y80VSS 2.91e-06nH
R_X10Y90VDD_X20Y90VDD X10Y90VDD X15Y90VDD 25mOhm
L_X10Y90VDD_X20Y90VDD X15Y90VDD X20Y90VDD 2.91e-06nH
R_X10Y90VSS_X20Y90VSS X10Y90VSS X15Y90VSS 25mOhm
L_X10Y90VSS_X20Y90VSS X15Y90VSS X20Y90VSS 2.91e-06nH
R_X20Y90VDD_X30Y90VDD X20Y90VDD X25Y90VDD 25mOhm
L_X20Y90VDD_X30Y90VDD X25Y90VDD X30Y90VDD 2.91e-06nH
R_X20Y90VSS_X30Y90VSS X20Y90VSS X25Y90VSS 25mOhm
L_X20Y90VSS_X30Y90VSS X25Y90VSS X30Y90VSS 2.91e-06nH
R_X30Y90VDD_X40Y90VDD X30Y90VDD X35Y90VDD 25mOhm
L_X30Y90VDD_X40Y90VDD X35Y90VDD X40Y90VDD 2.91e-06nH
R_X30Y90VSS_X40Y90VSS X30Y90VSS X35Y90VSS 25mOhm
L_X30Y90VSS_X40Y90VSS X35Y90VSS X40Y90VSS 2.91e-06nH
R_X40Y90VDD_X50Y90VDD X40Y90VDD X45Y90VDD 25mOhm
L_X40Y90VDD_X50Y90VDD X45Y90VDD X50Y90VDD 2.91e-06nH
R_X40Y90VSS_X50Y90VSS X40Y90VSS X45Y90VSS 25mOhm
L_X40Y90VSS_X50Y90VSS X45Y90VSS X50Y90VSS 2.91e-06nH
R_X50Y90VDD_X60Y90VDD X50Y90VDD X55Y90VDD 25mOhm
L_X50Y90VDD_X60Y90VDD X55Y90VDD X60Y90VDD 2.91e-06nH
R_X50Y90VSS_X60Y90VSS X50Y90VSS X55Y90VSS 25mOhm
L_X50Y90VSS_X60Y90VSS X55Y90VSS X60Y90VSS 2.91e-06nH
R_X60Y90VDD_X70Y90VDD X60Y90VDD X65Y90VDD 25mOhm
L_X60Y90VDD_X70Y90VDD X65Y90VDD X70Y90VDD 2.91e-06nH
R_X60Y90VSS_X70Y90VSS X60Y90VSS X65Y90VSS 25mOhm
L_X60Y90VSS_X70Y90VSS X65Y90VSS X70Y90VSS 2.91e-06nH
R_X70Y90VDD_X80Y90VDD X70Y90VDD X75Y90VDD 25mOhm
L_X70Y90VDD_X80Y90VDD X75Y90VDD X80Y90VDD 2.91e-06nH
R_X70Y90VSS_X80Y90VSS X70Y90VSS X75Y90VSS 25mOhm
L_X70Y90VSS_X80Y90VSS X75Y90VSS X80Y90VSS 2.91e-06nH
R_X80Y90VDD_X90Y90VDD X80Y90VDD X85Y90VDD 25mOhm
L_X80Y90VDD_X90Y90VDD X85Y90VDD X90Y90VDD 2.91e-06nH
R_X80Y90VSS_X90Y90VSS X80Y90VSS X85Y90VSS 25mOhm
L_X80Y90VSS_X90Y90VSS X85Y90VSS X90Y90VSS 2.91e-06nH
R_X90Y90VDD_X100Y90VDD X90Y90VDD X95Y90VDD 25mOhm
L_X90Y90VDD_X100Y90VDD X95Y90VDD X100Y90VDD 2.91e-06nH
R_X90Y90VSS_X100Y90VSS X90Y90VSS X95Y90VSS 25mOhm
L_X90Y90VSS_X100Y90VSS X95Y90VSS X100Y90VSS 2.91e-06nH
R_X100Y90VDD_X110Y90VDD X100Y90VDD X105Y90VDD 25mOhm
L_X100Y90VDD_X110Y90VDD X105Y90VDD X110Y90VDD 2.91e-06nH
R_X100Y90VSS_X110Y90VSS X100Y90VSS X105Y90VSS 25mOhm
L_X100Y90VSS_X110Y90VSS X105Y90VSS X110Y90VSS 2.91e-06nH
R_X110Y90VDD_X120Y90VDD X110Y90VDD X115Y90VDD 25mOhm
L_X110Y90VDD_X120Y90VDD X115Y90VDD X120Y90VDD 2.91e-06nH
R_X110Y90VSS_X120Y90VSS X110Y90VSS X115Y90VSS 25mOhm
L_X110Y90VSS_X120Y90VSS X115Y90VSS X120Y90VSS 2.91e-06nH
R_X10Y100VDD_X20Y100VDD X10Y100VDD X15Y100VDD 25mOhm
L_X10Y100VDD_X20Y100VDD X15Y100VDD X20Y100VDD 2.91e-06nH
R_X10Y100VSS_X20Y100VSS X10Y100VSS X15Y100VSS 25mOhm
L_X10Y100VSS_X20Y100VSS X15Y100VSS X20Y100VSS 2.91e-06nH
R_X20Y100VDD_X30Y100VDD X20Y100VDD X25Y100VDD 25mOhm
L_X20Y100VDD_X30Y100VDD X25Y100VDD X30Y100VDD 2.91e-06nH
R_X20Y100VSS_X30Y100VSS X20Y100VSS X25Y100VSS 25mOhm
L_X20Y100VSS_X30Y100VSS X25Y100VSS X30Y100VSS 2.91e-06nH
R_X30Y100VDD_X40Y100VDD X30Y100VDD X35Y100VDD 25mOhm
L_X30Y100VDD_X40Y100VDD X35Y100VDD X40Y100VDD 2.91e-06nH
R_X30Y100VSS_X40Y100VSS X30Y100VSS X35Y100VSS 25mOhm
L_X30Y100VSS_X40Y100VSS X35Y100VSS X40Y100VSS 2.91e-06nH
R_X40Y100VDD_X50Y100VDD X40Y100VDD X45Y100VDD 25mOhm
L_X40Y100VDD_X50Y100VDD X45Y100VDD X50Y100VDD 2.91e-06nH
R_X40Y100VSS_X50Y100VSS X40Y100VSS X45Y100VSS 25mOhm
L_X40Y100VSS_X50Y100VSS X45Y100VSS X50Y100VSS 2.91e-06nH
R_X50Y100VDD_X60Y100VDD X50Y100VDD X55Y100VDD 25mOhm
L_X50Y100VDD_X60Y100VDD X55Y100VDD X60Y100VDD 2.91e-06nH
R_X50Y100VSS_X60Y100VSS X50Y100VSS X55Y100VSS 25mOhm
L_X50Y100VSS_X60Y100VSS X55Y100VSS X60Y100VSS 2.91e-06nH
R_X60Y100VDD_X70Y100VDD X60Y100VDD X65Y100VDD 25mOhm
L_X60Y100VDD_X70Y100VDD X65Y100VDD X70Y100VDD 2.91e-06nH
R_X60Y100VSS_X70Y100VSS X60Y100VSS X65Y100VSS 25mOhm
L_X60Y100VSS_X70Y100VSS X65Y100VSS X70Y100VSS 2.91e-06nH
R_X70Y100VDD_X80Y100VDD X70Y100VDD X75Y100VDD 25mOhm
L_X70Y100VDD_X80Y100VDD X75Y100VDD X80Y100VDD 2.91e-06nH
R_X70Y100VSS_X80Y100VSS X70Y100VSS X75Y100VSS 25mOhm
L_X70Y100VSS_X80Y100VSS X75Y100VSS X80Y100VSS 2.91e-06nH
R_X80Y100VDD_X90Y100VDD X80Y100VDD X85Y100VDD 25mOhm
L_X80Y100VDD_X90Y100VDD X85Y100VDD X90Y100VDD 2.91e-06nH
R_X80Y100VSS_X90Y100VSS X80Y100VSS X85Y100VSS 25mOhm
L_X80Y100VSS_X90Y100VSS X85Y100VSS X90Y100VSS 2.91e-06nH
R_X90Y100VDD_X100Y100VDD X90Y100VDD X95Y100VDD 25mOhm
L_X90Y100VDD_X100Y100VDD X95Y100VDD X100Y100VDD 2.91e-06nH
R_X90Y100VSS_X100Y100VSS X90Y100VSS X95Y100VSS 25mOhm
L_X90Y100VSS_X100Y100VSS X95Y100VSS X100Y100VSS 2.91e-06nH
R_X100Y100VDD_X110Y100VDD X100Y100VDD X105Y100VDD 25mOhm
L_X100Y100VDD_X110Y100VDD X105Y100VDD X110Y100VDD 2.91e-06nH
R_X100Y100VSS_X110Y100VSS X100Y100VSS X105Y100VSS 25mOhm
L_X100Y100VSS_X110Y100VSS X105Y100VSS X110Y100VSS 2.91e-06nH
R_X110Y100VDD_X120Y100VDD X110Y100VDD X115Y100VDD 25mOhm
L_X110Y100VDD_X120Y100VDD X115Y100VDD X120Y100VDD 2.91e-06nH
R_X110Y100VSS_X120Y100VSS X110Y100VSS X115Y100VSS 25mOhm
L_X110Y100VSS_X120Y100VSS X115Y100VSS X120Y100VSS 2.91e-06nH
R_X10Y110VDD_X20Y110VDD X10Y110VDD X15Y110VDD 25mOhm
L_X10Y110VDD_X20Y110VDD X15Y110VDD X20Y110VDD 2.91e-06nH
R_X10Y110VSS_X20Y110VSS X10Y110VSS X15Y110VSS 25mOhm
L_X10Y110VSS_X20Y110VSS X15Y110VSS X20Y110VSS 2.91e-06nH
R_X20Y110VDD_X30Y110VDD X20Y110VDD X25Y110VDD 25mOhm
L_X20Y110VDD_X30Y110VDD X25Y110VDD X30Y110VDD 2.91e-06nH
R_X20Y110VSS_X30Y110VSS X20Y110VSS X25Y110VSS 25mOhm
L_X20Y110VSS_X30Y110VSS X25Y110VSS X30Y110VSS 2.91e-06nH
R_X30Y110VDD_X40Y110VDD X30Y110VDD X35Y110VDD 25mOhm
L_X30Y110VDD_X40Y110VDD X35Y110VDD X40Y110VDD 2.91e-06nH
R_X30Y110VSS_X40Y110VSS X30Y110VSS X35Y110VSS 25mOhm
L_X30Y110VSS_X40Y110VSS X35Y110VSS X40Y110VSS 2.91e-06nH
R_X40Y110VDD_X50Y110VDD X40Y110VDD X45Y110VDD 25mOhm
L_X40Y110VDD_X50Y110VDD X45Y110VDD X50Y110VDD 2.91e-06nH
R_X40Y110VSS_X50Y110VSS X40Y110VSS X45Y110VSS 25mOhm
L_X40Y110VSS_X50Y110VSS X45Y110VSS X50Y110VSS 2.91e-06nH
R_X50Y110VDD_X60Y110VDD X50Y110VDD X55Y110VDD 25mOhm
L_X50Y110VDD_X60Y110VDD X55Y110VDD X60Y110VDD 2.91e-06nH
R_X50Y110VSS_X60Y110VSS X50Y110VSS X55Y110VSS 25mOhm
L_X50Y110VSS_X60Y110VSS X55Y110VSS X60Y110VSS 2.91e-06nH
R_X60Y110VDD_X70Y110VDD X60Y110VDD X65Y110VDD 25mOhm
L_X60Y110VDD_X70Y110VDD X65Y110VDD X70Y110VDD 2.91e-06nH
R_X60Y110VSS_X70Y110VSS X60Y110VSS X65Y110VSS 25mOhm
L_X60Y110VSS_X70Y110VSS X65Y110VSS X70Y110VSS 2.91e-06nH
R_X70Y110VDD_X80Y110VDD X70Y110VDD X75Y110VDD 25mOhm
L_X70Y110VDD_X80Y110VDD X75Y110VDD X80Y110VDD 2.91e-06nH
R_X70Y110VSS_X80Y110VSS X70Y110VSS X75Y110VSS 25mOhm
L_X70Y110VSS_X80Y110VSS X75Y110VSS X80Y110VSS 2.91e-06nH
R_X80Y110VDD_X90Y110VDD X80Y110VDD X85Y110VDD 25mOhm
L_X80Y110VDD_X90Y110VDD X85Y110VDD X90Y110VDD 2.91e-06nH
R_X80Y110VSS_X90Y110VSS X80Y110VSS X85Y110VSS 25mOhm
L_X80Y110VSS_X90Y110VSS X85Y110VSS X90Y110VSS 2.91e-06nH
R_X90Y110VDD_X100Y110VDD X90Y110VDD X95Y110VDD 25mOhm
L_X90Y110VDD_X100Y110VDD X95Y110VDD X100Y110VDD 2.91e-06nH
R_X90Y110VSS_X100Y110VSS X90Y110VSS X95Y110VSS 25mOhm
L_X90Y110VSS_X100Y110VSS X95Y110VSS X100Y110VSS 2.91e-06nH
R_X100Y110VDD_X110Y110VDD X100Y110VDD X105Y110VDD 25mOhm
L_X100Y110VDD_X110Y110VDD X105Y110VDD X110Y110VDD 2.91e-06nH
R_X100Y110VSS_X110Y110VSS X100Y110VSS X105Y110VSS 25mOhm
L_X100Y110VSS_X110Y110VSS X105Y110VSS X110Y110VSS 2.91e-06nH
R_X110Y110VDD_X120Y110VDD X110Y110VDD X115Y110VDD 25mOhm
L_X110Y110VDD_X120Y110VDD X115Y110VDD X120Y110VDD 2.91e-06nH
R_X110Y110VSS_X120Y110VSS X110Y110VSS X115Y110VSS 25mOhm
L_X110Y110VSS_X120Y110VSS X115Y110VSS X120Y110VSS 2.91e-06nH
R_X10Y120VDD_X20Y120VDD X10Y120VDD X15Y120VDD 25mOhm
L_X10Y120VDD_X20Y120VDD X15Y120VDD X20Y120VDD 2.91e-06nH
R_X10Y120VSS_X20Y120VSS X10Y120VSS X15Y120VSS 25mOhm
L_X10Y120VSS_X20Y120VSS X15Y120VSS X20Y120VSS 2.91e-06nH
R_X20Y120VDD_X30Y120VDD X20Y120VDD X25Y120VDD 25mOhm
L_X20Y120VDD_X30Y120VDD X25Y120VDD X30Y120VDD 2.91e-06nH
R_X20Y120VSS_X30Y120VSS X20Y120VSS X25Y120VSS 25mOhm
L_X20Y120VSS_X30Y120VSS X25Y120VSS X30Y120VSS 2.91e-06nH
R_X30Y120VDD_X40Y120VDD X30Y120VDD X35Y120VDD 25mOhm
L_X30Y120VDD_X40Y120VDD X35Y120VDD X40Y120VDD 2.91e-06nH
R_X30Y120VSS_X40Y120VSS X30Y120VSS X35Y120VSS 25mOhm
L_X30Y120VSS_X40Y120VSS X35Y120VSS X40Y120VSS 2.91e-06nH
R_X40Y120VDD_X50Y120VDD X40Y120VDD X45Y120VDD 25mOhm
L_X40Y120VDD_X50Y120VDD X45Y120VDD X50Y120VDD 2.91e-06nH
R_X40Y120VSS_X50Y120VSS X40Y120VSS X45Y120VSS 25mOhm
L_X40Y120VSS_X50Y120VSS X45Y120VSS X50Y120VSS 2.91e-06nH
R_X50Y120VDD_X60Y120VDD X50Y120VDD X55Y120VDD 25mOhm
L_X50Y120VDD_X60Y120VDD X55Y120VDD X60Y120VDD 2.91e-06nH
R_X50Y120VSS_X60Y120VSS X50Y120VSS X55Y120VSS 25mOhm
L_X50Y120VSS_X60Y120VSS X55Y120VSS X60Y120VSS 2.91e-06nH
R_X60Y120VDD_X70Y120VDD X60Y120VDD X65Y120VDD 25mOhm
L_X60Y120VDD_X70Y120VDD X65Y120VDD X70Y120VDD 2.91e-06nH
R_X60Y120VSS_X70Y120VSS X60Y120VSS X65Y120VSS 25mOhm
L_X60Y120VSS_X70Y120VSS X65Y120VSS X70Y120VSS 2.91e-06nH
R_X70Y120VDD_X80Y120VDD X70Y120VDD X75Y120VDD 25mOhm
L_X70Y120VDD_X80Y120VDD X75Y120VDD X80Y120VDD 2.91e-06nH
R_X70Y120VSS_X80Y120VSS X70Y120VSS X75Y120VSS 25mOhm
L_X70Y120VSS_X80Y120VSS X75Y120VSS X80Y120VSS 2.91e-06nH
R_X80Y120VDD_X90Y120VDD X80Y120VDD X85Y120VDD 25mOhm
L_X80Y120VDD_X90Y120VDD X85Y120VDD X90Y120VDD 2.91e-06nH
R_X80Y120VSS_X90Y120VSS X80Y120VSS X85Y120VSS 25mOhm
L_X80Y120VSS_X90Y120VSS X85Y120VSS X90Y120VSS 2.91e-06nH
R_X90Y120VDD_X100Y120VDD X90Y120VDD X95Y120VDD 25mOhm
L_X90Y120VDD_X100Y120VDD X95Y120VDD X100Y120VDD 2.91e-06nH
R_X90Y120VSS_X100Y120VSS X90Y120VSS X95Y120VSS 25mOhm
L_X90Y120VSS_X100Y120VSS X95Y120VSS X100Y120VSS 2.91e-06nH
R_X100Y120VDD_X110Y120VDD X100Y120VDD X105Y120VDD 25mOhm
L_X100Y120VDD_X110Y120VDD X105Y120VDD X110Y120VDD 2.91e-06nH
R_X100Y120VSS_X110Y120VSS X100Y120VSS X105Y120VSS 25mOhm
L_X100Y120VSS_X110Y120VSS X105Y120VSS X110Y120VSS 2.91e-06nH
R_X110Y120VDD_X120Y120VDD X110Y120VDD X115Y120VDD 25mOhm
L_X110Y120VDD_X120Y120VDD X115Y120VDD X120Y120VDD 2.91e-06nH
R_X110Y120VSS_X120Y120VSS X110Y120VSS X115Y120VSS 25mOhm
L_X110Y120VSS_X120Y120VSS X115Y120VSS X120Y120VSS 2.91e-06nH
R_X10Y10VDD_X10Y20VDD X10Y10VDD X10Y15VDD 25mOhm
L_X10Y10VDD_X10Y20VDD X10Y15VDD X10Y20VDD 2.91e-06nH
R_X10Y10VSS_X10Y20VSS X10Y10VSS X10Y15VSS 25mOhm
L_X10Y10VSS_X10Y20VSS X10Y15VSS X10Y20VSS 2.91e-06nH
R_X10Y20VDD_X10Y30VDD X10Y20VDD X10Y25VDD 25mOhm
L_X10Y20VDD_X10Y30VDD X10Y25VDD X10Y30VDD 2.91e-06nH
R_X10Y20VSS_X10Y30VSS X10Y20VSS X10Y25VSS 25mOhm
L_X10Y20VSS_X10Y30VSS X10Y25VSS X10Y30VSS 2.91e-06nH
R_X10Y30VDD_X10Y40VDD X10Y30VDD X10Y35VDD 25mOhm
L_X10Y30VDD_X10Y40VDD X10Y35VDD X10Y40VDD 2.91e-06nH
R_X10Y30VSS_X10Y40VSS X10Y30VSS X10Y35VSS 25mOhm
L_X10Y30VSS_X10Y40VSS X10Y35VSS X10Y40VSS 2.91e-06nH
R_X10Y40VDD_X10Y50VDD X10Y40VDD X10Y45VDD 25mOhm
L_X10Y40VDD_X10Y50VDD X10Y45VDD X10Y50VDD 2.91e-06nH
R_X10Y40VSS_X10Y50VSS X10Y40VSS X10Y45VSS 25mOhm
L_X10Y40VSS_X10Y50VSS X10Y45VSS X10Y50VSS 2.91e-06nH
R_X10Y50VDD_X10Y60VDD X10Y50VDD X10Y55VDD 25mOhm
L_X10Y50VDD_X10Y60VDD X10Y55VDD X10Y60VDD 2.91e-06nH
R_X10Y50VSS_X10Y60VSS X10Y50VSS X10Y55VSS 25mOhm
L_X10Y50VSS_X10Y60VSS X10Y55VSS X10Y60VSS 2.91e-06nH